BDEPEND=dev-lang/R:=
DEFINED_PHASES=compile configure install postinst unpack
DEPEND=sci-CRAN/magrittr sci-CRAN/stringr sci-CRAN/purrr >=sci-CRAN/dplyr-1.0.0 sci-CRAN/sf sci-CRAN/sys sci-CRAN/data_table sci-CRAN/gstat sci-CRAN/fs sci-CRAN/raster sci-CRAN/Rcpp sci-CRAN/rlang sci-CRAN/sp >=sci-CRAN/tidyr-1.0.0 sci-CRAN/tidyselect dev-lang/R:=
DESCRIPTION=R Interface to the TELEMAC Model Suite
EAPI=7
INHERIT=R-packages
IUSE=r_suggests_covr r_suggests_knitr r_suggests_rmarkdown r_suggests_rtriangle r_suggests_spelling r_suggests_stars r_suggests_terrainmeshr r_suggests_testthat r_suggests_tidyverse byte-compile
KEYWORDS=~amd64
LICENSE=GPL-3+
RDEPEND=sci-CRAN/magrittr sci-CRAN/stringr sci-CRAN/purrr >=sci-CRAN/dplyr-1.0.0 sci-CRAN/sf sci-CRAN/sys sci-CRAN/data_table sci-CRAN/gstat sci-CRAN/fs sci-CRAN/raster sci-CRAN/Rcpp sci-CRAN/rlang sci-CRAN/sp >=sci-CRAN/tidyr-1.0.0 sci-CRAN/tidyselect sci-CRAN/Rcpp sci-CRAN/RcppArmadillo r_suggests_covr? ( sci-CRAN/covr ) r_suggests_knitr? ( sci-CRAN/knitr ) r_suggests_rmarkdown? ( sci-CRAN/rmarkdown ) r_suggests_rtriangle? ( sci-CRAN/RTriangle ) r_suggests_spelling? ( sci-CRAN/spelling ) r_suggests_stars? ( sci-CRAN/stars ) r_suggests_terrainmeshr? ( sci-CRAN/terrainmeshr ) r_suggests_testthat? ( >=sci-CRAN/testthat-3.0.0 ) r_suggests_tidyverse? ( sci-CRAN/tidyverse ) dev-lang/R:=
SLOT=0
SRC_URI=http://cran.r-project.org/src/contrib/telemac_0.1.1.tar.gz
_eclasses_=R-packages	a0771771b6247bbdb7be4ed64e774f82
_md5_=42850e7c64ab91893d260ab6052de271
